@<TRIPOS>MOLECULE
EFZ
   30    32     1     0     0
SMALL
bcc


@<TRIPOS>ATOM
      1 CL          -4.6850   -32.7250    25.2220 cl       999 EFZ      -0.074400
      2 F1          -0.7550   -36.6320    25.6970 f        999 EFZ      -0.224300
      3 F2           1.0780   -37.0430    24.6720 f        999 EFZ      -0.224300
      4 F3          -0.7840   -37.1770    23.6260 f        999 EFZ      -0.224300
      5 O1           1.5240   -34.9340    20.9100 o        999 EFZ      -0.582500
      6 O2           0.9890   -34.8800    23.0580 os       999 EFZ      -0.378900
      7 N           -0.6810   -34.9710    21.4340 n        999 EFZ      -0.474100
      8 C1          -1.6620   -34.4140    22.3130 ca       999 EFZ       0.107600
      9 C2          -2.9150   -33.9470    21.8430 ca       999 EFZ      -0.172000
     10 C3          -3.8380   -33.4230    22.7710 ca       999 EFZ      -0.068000
     11 C4          -3.5330   -33.3730    24.1190 ca       999 EFZ      -0.017600
     12 C5          -2.3100   -33.8290    24.5930 ca       999 EFZ      -0.053000
     13 C6          -1.3860   -34.3780    23.6810 ca       999 EFZ      -0.175300
     14 C7          -0.0020   -34.9570    24.1440 c3       999 EFZ       0.314200
     15 C8           0.5520   -34.2360    25.3150 c1       999 EFZ      -0.204100
     16 C9           0.9850   -33.6570    26.2410 c1       999 EFZ       0.013900
     17 C10          1.6050   -32.8020    27.5860 cx       999 EFZ      -0.082600
     18 C11          2.8080   -33.0830    27.6390 cx       999 EFZ      -0.107900
     19 C12          2.4040   -31.9800    27.1230 cx       999 EFZ      -0.107900
     20 C13         -0.1210   -36.4720    24.5390 c3       999 EFZ       0.626900
     21 C14          0.6650   -34.9320    21.7250 c        999 EFZ       0.843600
     22 H122         2.4640   -31.8200    26.1680 hc       999 EFZ       0.081950
     23 H121         2.5630   -31.1310    27.5640 hc       999 EFZ       0.081950
     24 H112         3.2840   -33.0980    28.4840 hc       999 EFZ       0.081950
     25 H111         3.1850   -33.7870    27.0890 hc       999 EFZ       0.081950
     26 H101         0.8810   -32.7660    28.2300 hc       999 EFZ       0.103700
     27 HN          -0.9390   -35.3410    20.7020 hn       999 EFZ       0.356500
     28 H5          -2.0950   -33.7710    25.5370 ha       999 EFZ       0.170000
     29 H3          -4.6960   -33.0940    22.4610 ha       999 EFZ       0.156000
     30 H2          -3.1340   -33.9870    20.8990 ha       999 EFZ       0.149000
@<TRIPOS>BOND
     1     1    11 1   
     2     2    20 1   
     3     3    20 1   
     4     4    20 1   
     5     5    21 2   
     6     6    14 1   
     7     6    21 1   
     8     7     8 1   
     9     7    21 1   
    10     7    27 1   
    11     8     9 ar  
    12     8    13 ar  
    13     9    10 ar  
    14     9    30 1   
    15    10    11 ar  
    16    10    29 1   
    17    11    12 ar  
    18    12    13 ar  
    19    12    28 1   
    20    13    14 1   
    21    14    15 1   
    22    14    20 1   
    23    15    16 3   
    24    16    17 1   
    25    17    18 1   
    26    17    19 1   
    27    17    26 1   
    28    18    19 1   
    29    18    24 1   
    30    18    25 1   
    31    19    22 1   
    32    19    23 1   
@<TRIPOS>SUBSTRUCTURE
     1 EFZ         1 TEMP              0 ****  ****    0 ROOT
